Warning: can't find the initialization file spinit.

Note: Compatibility modes selected: ps lt ki a


Circuit: * rc low-pass filter

binary raw file "C:/Users/eugene.dann/Documents/dev/sims/rc_sweep_output/rc_filter_6.raw"
Doing analysis at TEMP = 27.000000 and TNOM = 27.000000

Using SPARSE 1.3 as Direct Linear Solver
Note: vin: has no value, DC 0 assumed
No. of Data Columns : 2  

No. of Data Rows : 1001

Total analysis time (seconds) = 0.0078108

Total elapsed time (seconds) = 0.073 

Total DRAM available = 32488.492 MB.
DRAM currently available = 8721.730 MB.
Maximum ngspice program size =   18.441 MB.
Current ngspice program size =   18.441 MB.

