Warning: can't find the initialization file spinit.

Note: Compatibility modes selected: ps lt ki a


Circuit: * common-emitter amplifier test - fixed & verified version

binary raw file "c:/Users/eugene.dann/Documents/dev/sims/circuits/heterodyne_reciever/antenna/bjt_test/output/bjt_test_1.raw"
Doing analysis at TEMP = 27.000000 and TNOM = 27.000000

Using SPARSE 1.3 as Direct Linear Solver
Note: vin: has no value, DC 0 assumed
No. of Data Columns : 10  

No. of Data Rows : 701
No. of Data Columns : 9  

No. of Data Rows : 1
.print line ignored since rawfile was produced.

Total analysis time (seconds) = 0.0069314

Total elapsed time (seconds) = 0.079 

Total DRAM available = 32488.492 MB.
DRAM currently available = 8546.359 MB.
Maximum ngspice program size =   18.551 MB.
Current ngspice program size =   18.551 MB.

